@<TRIPOS>MOLECULE
ATP
   43    45     1     0     0
SMALL
bcc


@<TRIPOS>ATOM
      1 PG         -24.6900    -3.2340     7.2080 p5         1 ATP        1.451900
      2 O1G        -26.0390    -3.8240     7.5360 o          1 ATP       -0.948833
      3 O2G        -24.4060    -1.9120     7.8830 o          1 ATP       -0.948833
      4 O3G        -23.5490    -4.2200     7.2820 o          1 ATP       -0.948833
      5 PB         -23.4280    -2.3950     4.8430 p5         1 ATP        1.634800
      6 O1B        -23.0230    -1.0200     5.3350 o          1 ATP       -0.911000
      7 O2B        -22.4450    -3.5520     4.9510 o          1 ATP       -0.911000
      8 O3B        -24.7990    -2.8380     5.6610 os         1 ATP       -0.792800
      9 PA         -23.7710    -1.0440     2.3700 p5         1 ATP        1.642800
     10 O1A        -23.5550     0.1790     3.2080 o          1 ATP       -0.926000
     11 O2A        -22.8340    -1.3400     1.2200 o          1 ATP       -0.926000
     12 O3A        -23.8230    -2.3530     3.2940 os         1 ATP       -0.738800
     13 O5'        -25.2920    -0.9940     1.8400 os         1 ATP       -0.557200
     14 C5'        -25.9700    -2.0990     1.2380 c3         1 ATP        0.305400
     15 C4'        -27.4630    -1.9130     1.4880 c5         1 ATP        0.061100
     16 O4'        -27.8410    -0.6140     1.0440 os         1 ATP       -0.450600
     17 C3'        -28.3630    -2.8870     0.7470 c5         1 ATP        0.085100
     18 O3'        -29.4830    -3.2270     1.5650 oh         1 ATP       -0.670800
     19 C2'        -28.8620    -2.1380    -0.4630 c5         1 ATP        0.099100
     20 O2'        -30.2100    -2.5060    -0.7620 oh         1 ATP       -0.649800
     21 C1'        -28.7520    -0.6710    -0.0570 c5         1 ATP        0.234800
     22 N9         -28.2970     0.2350    -1.1530 na         1 ATP       -0.263000
     23 C8         -27.4980    -0.0330    -2.2060 cc         1 ATP        0.495700
     24 N7         -27.3460     1.0930    -2.9430 nd         1 ATP       -0.632100
     25 C5         -28.0670     2.0710    -2.3480 ca         1 ATP       -0.171200
     26 C6         -28.3010     3.4150    -2.6360 ca         1 ATP        0.633200
     27 N6         -27.7470     3.9930    -3.7290 nv         1 ATP       -0.911500
     28 N1         -29.0820     4.1450    -1.8030 nb         1 ATP       -0.806000
     29 C2         -29.6400     3.5850    -0.7190 ca         1 ATP        0.599900
     30 N3         -29.4260     2.2910    -0.4250 nb         1 ATP       -0.708000
     31 C4         -28.6510     1.5200    -1.2200 ca         1 ATP        0.415800
     32 H1         -25.7700    -2.1180     0.1570 h1         1 ATP       -0.058300
     33 H2         -25.6210    -3.0490     1.6690 h1         1 ATP       -0.058300
     34 H3         -27.5990    -2.0800     2.5670 h1         1 ATP        0.051700
     35 H4         -27.8270    -3.8100     0.4820 h1         1 ATP        0.174700
     36 H5         -29.2300    -3.1500     2.5190 ho         1 ATP        0.509000
     37 H6         -28.2880    -2.3580    -1.3750 h1         1 ATP        0.066700
     38 H7         -30.7100    -2.6420     0.0820 ho         1 ATP        0.436000
     39 H8         -29.7560    -0.3080     0.2090 h2         1 ATP        0.072700
     40 H9         -27.0430    -1.0090    -2.4300 h5         1 ATP        0.247800
     41 H10        -27.9260     4.9870    -3.9330 hn         1 ATP        0.381800
     42 H11        -27.1470     3.4390    -4.3560 hn         1 ATP        0.381800
     43 H12        -30.2810     4.1920    -0.0630 h5         1 ATP        0.005100
@<TRIPOS>BOND
     1     2     1 1   
     2     3     1 1   
     3     4     1 1   
     4     5     6 1   
     5     7     5 1   
     6     8     5 1   
     7     8     1 1   
     8     9    10 1   
     9    11     9 1   
    10    12     9 1   
    11    12     5 1   
    12    13     9 1   
    13    14    13 1   
    14    15    14 1   
    15    16    15 1   
    16    17    15 1   
    17    18    17 1   
    18    19    17 1   
    19    20    19 1   
    20    21    19 1   
    21    21    16 1   
    22    22    21 1   
    23    23    22 1   
    24    24    23 2   
    25    25    24 1   
    26    26    25 ar  
    27    27    26 1   
    28    28    26 ar  
    29    29    28 ar  
    30    30    29 ar  
    31    31    30 ar  
    32    31    25 ar  
    33    31    22 1   
    34    14    32 1   
    35    14    33 1   
    36    15    34 1   
    37    17    35 1   
    38    18    36 1   
    39    19    37 1   
    40    20    38 1   
    41    21    39 1   
    42    23    40 1   
    43    27    41 1   
    44    27    42 1   
    45    29    43 1   
@<TRIPOS>SUBSTRUCTURE
     1 ATP         1 TEMP              0 ****  ****    0 ROOT
