@<TRIPOS>MOLECULE
GLC
   24    24     1     0     0
SMALL
bcc


@<TRIPOS>ATOM
      1 C2         -26.1450    -6.0590    13.1130 c6         1 GLC        0.047100
      2 C3         -25.0760    -5.1460    13.7200 c6         1 GLC        0.077100
      3 C4         -24.4700    -4.2220    12.6830 c6         1 GLC        0.116100
      4 C5         -25.5240    -3.5930    11.7680 c6         1 GLC        0.115100
      5 C6         -24.9160    -2.8970    10.5710 c3         1 GLC        0.143400
      6 C1         -27.1260    -5.1240    12.4270 c6         1 GLC        0.316900
      7 O1         -28.2070    -5.8430    11.9400 oh         1 GLC       -0.575800
      8 O2         -26.7790    -6.8750    14.1000 oh         1 GLC       -0.581800
      9 O3         -24.0440    -5.8500    14.3830 oh         1 GLC       -0.603800
     10 O4         -23.7900    -3.2020    13.3940 oh         1 GLC       -0.608800
     11 O5         -26.4860    -4.5300    11.3210 os         1 GLC       -0.442600
     12 O6         -24.1290    -3.7730     9.7740 oh         1 GLC       -0.597800
     13 H1         -25.7070    -6.7760    12.4020 h1         1 GLC        0.102700
     14 H2         -25.6080    -4.5490    14.4750 h1         1 GLC        0.049700
     15 H3         -23.7970    -4.7980    12.0320 h1         1 GLC        0.080700
     16 H4         -26.0280    -2.8410    12.3930 h1         1 GLC        0.054700
     17 H5         -25.7270    -2.4890     9.9500 h1         1 GLC        0.062200
     18 H6         -24.2550    -2.1020    10.9470 h1         1 GLC        0.062200
     19 H7         -27.4650    -4.3690    13.1520 h2         1 GLC        0.074700
     20 H8         -28.7370    -6.1960    12.6980 ho         1 GLC        0.427000
     21 H9         -26.5300    -6.5540    15.0030 ho         1 GLC        0.407000
     22 H10        -24.1650    -5.7680    15.3620 ho         1 GLC        0.427000
     23 H11        -23.8910    -3.3540    14.3670 ho         1 GLC        0.431000
     24 H12        -23.5970    -4.3650    10.3620 ho         1 GLC        0.417000
@<TRIPOS>BOND
     1     2     1 1   
     2     3     2 1   
     3     4     3 1   
     4     5     4 1   
     5     6     1 1   
     6     7     6 1   
     7     8     1 1   
     8     9     2 1   
     9    10     3 1   
    10    11     6 1   
    11    11     4 1   
    12    12     5 1   
    13     1    13 1   
    14     2    14 1   
    15     3    15 1   
    16     4    16 1   
    17     5    17 1   
    18     5    18 1   
    19     6    19 1   
    20     7    20 1   
    21     8    21 1   
    22     9    22 1   
    23    10    23 1   
    24    12    24 1   
@<TRIPOS>SUBSTRUCTURE
     1 GLC         1 TEMP              0 ****  ****    0 ROOT
